48

C          0.59798        0.38426        2.29841
C          7.89823       -6.02106        3.29333
C          1.13517       -0.99122        2.73555
C          2.45762       -1.30213        2.60625
C          0.21988       -1.93934        3.27968
C          2.95284       -2.58291        3.01525
H          3.17426       -0.57916        2.18817
C          0.65484       -3.16944        3.67967
H         -0.83927       -1.65638        3.36998
C          4.30458       -2.92222        2.89183
C          2.03575       -3.53272        3.56122
H         -0.04122       -3.91023        4.10130
C          4.77211       -4.17675        3.29806
C          6.15303       -4.54015        3.17969
C          3.85531       -5.12591        3.84579
C          6.58914       -5.76757        3.58644
H          6.84873       -3.80068        2.75520
C          4.35144       -6.40465        4.26016
C          5.67462       -6.71401        4.13492
H          3.63511       -7.12684        4.68006
H          6.05940       -7.69471        4.45142
C          5.29297       -1.89933        2.30158
C          6.47977        0.32043        2.78955
C          6.12725       -1.34478        1.01069
C          6.80117       -0.02085        1.34151
H          7.38670        0.36284        3.35574
H          5.98834        1.26997        2.83158
C          6.33358       -1.77519       -0.35505
C          6.94285       -1.06955       -1.39240
C          7.50898        0.18194       -1.14650
C          7.46607        0.72667        0.13684
H          7.98926        0.73815       -1.96458
H          7.91215        1.71298        0.33096
C          5.55658       -0.76193        3.37930
H          6.03588       -1.22088        4.21867
C          4.23381       -0.11688        3.83296
H          3.68388        0.21009        2.97531
H          3.65472       -0.83454        4.37566
H          4.44378        0.72200        4.46312
C          6.01763       -3.19503       -0.69993
C          5.98050       -3.68549       -2.00551
C          6.51185       -2.92934       -3.05008
C          7.07960       -1.68156       -2.78945
H          5.59906       -3.79155        0.12354
H          5.53336       -4.66899       -2.21054
H          6.48318       -3.31613       -4.07909
H          7.49843       -1.08551       -3.61323
S          2.50315       -4.78756        3.96680
